3poz
  PyMOL2.6          3D                             0

 38 41  0  0  0  0  0  0  0  0999 V2000
   13.3710   34.0640   15.0050 N   0  0  0  0  0  0  0  0  0  0  0  0
   13.5190   33.6450   13.7380 C   0  0  0  0  0  0  0  0  0  0  0  0
   20.0140   34.4420   13.5830 O   0  0  0  0  0  0  0  0  0  0  0  0
   15.6760   34.7660    8.3190 Cl  0  0  0  0  0  0  0  0  0  0  0  0
   15.8750   33.8860   13.8120 C   0  0  0  0  0  0  0  0  0  0  0  0
   14.7340   33.5590   13.1610 N   0  0  0  0  0  0  0  0  0  0  0  0
   17.6880   32.6400    7.7450 O   0  0  0  0  0  0  0  0  0  0  0  0
   14.4750   34.4120   15.7050 C   0  0  0  0  0  0  0  0  0  0  0  0
   16.5930   34.7400   16.1000 N   0  0  0  0  0  0  0  0  0  0  0  0
   22.0200   32.5000   14.9190 O   0  0  0  0  0  0  0  0  0  0  0  0
   15.7330   34.3090   15.1460 C   0  0  0  0  0  0  0  0  0  0  0  0
   20.2250   35.7750   15.3950 N   0  0  0  0  0  0  0  0  0  0  0  0
   15.8900   35.0340   17.2350 C   0  0  0  0  0  0  0  0  0  0  0  0
   17.0810   33.8100   13.1800 N   0  0  0  0  0  0  0  0  0  0  0  0
   14.5180   34.8540   17.0580 C   0  0  0  0  0  0  0  0  0  0  0  0
   18.0730   34.7880   16.0540 C   0  0  0  0  0  0  0  0  0  0  0  0
   18.7830   36.0320   15.5310 C   0  0  0  0  0  0  0  0  0  0  0  0
   20.7150   35.0010   14.4070 C   0  0  0  0  0  0  0  0  0  0  0  0
   22.2200   34.8250   14.3240 C   0  0  0  0  0  0  0  0  0  0  0  0
   17.2240   33.5270   11.8350 C   0  0  0  0  0  0  0  0  0  0  0  0
   16.4760   34.2030   10.8620 C   0  0  0  0  0  0  0  0  0  0  0  0
   16.6540   33.8950    9.5210 C   0  0  0  0  0  0  0  0  0  0  0  0
   17.5500   32.9210    9.0980 C   0  0  0  0  0  0  0  0  0  0  0  0
   18.3170   32.2500   10.0520 C   0  0  0  0  0  0  0  0  0  0  0  0
   18.1350   32.5430   11.4220 C   0  0  0  0  0  0  0  0  0  0  0  0
   17.4560   31.3660    7.3000 C   0  0  0  0  0  0  0  0  0  0  0  0
   18.4040   30.7430    6.4860 C   0  0  0  0  0  0  0  0  0  0  0  0
   18.1880   29.4520    6.0170 C   0  0  0  0  0  0  0  0  0  0  0  0
   17.0120   28.7820    6.3480 C   0  0  0  0  0  0  0  0  0  0  0  0
   16.0480   29.3940    7.1640 C   0  0  0  0  0  0  0  0  0  0  0  0
   16.2660   30.6950    7.6250 C   0  0  0  0  0  0  0  0  0  0  0  0
   14.8020   28.6230    7.5000 C   0  0  0  0  0  0  0  0  0  0  0  0
   22.6070   33.3860   13.9560 C   0  0  0  0  0  0  0  0  0  0  0  0
   24.1210   33.2280   14.0430 C   0  0  0  0  0  0  0  0  0  0  0  0
   22.1470   32.9560   12.5610 C   0  0  0  0  0  0  0  0  0  0  0  0
   14.2830   28.1180    6.3950 F   0  0  0  0  0  0  0  0  0  0  0  0
   15.1020   27.6320    8.3300 F   0  0  0  0  0  0  0  0  0  0  0  0
   13.8670   29.3560    8.0560 F   0  0  0  0  0  0  0  0  0  0  0  0
  1  2  4  0  0  0  0
  5 11  4  0  0  0  0
  2  6  4  0  0  0  0
  5  6  4  0  0  0  0
  1  8  4  0  0  0  0
  8 11  4  0  0  0  0
  9 11  4  0  0  0  0
 12 17  1  0  0  0  0
 12 18  1  0  0  0  0
  9 13  4  0  0  0  0
 13 15  4  0  0  0  0
  5 14  1  0  0  0  0
  8 15  4  0  0  0  0
  9 16  1  0  0  0  0
 16 17  1  0  0  0  0
  3 18  2  0  0  0  0
 18 19  1  0  0  0  0
 19 33  1  0  0  0  0
 14 20  1  0  0  0  0
 20 21  4  0  0  0  0
 20 25  4  0  0  0  0
  4 22  1  0  0  0  0
 21 22  4  0  0  0  0
  7 23  1  0  0  0  0
 22 23  4  0  0  0  0
 23 24  4  0  0  0  0
 24 25  4  0  0  0  0
  7 26  1  0  0  0  0
 26 27  4  0  0  0  0
 27 28  4  0  0  0  0
 28 29  4  0  0  0  0
 29 30  4  0  0  0  0
 30 31  4  0  0  0  0
 30 32  1  0  0  0  0
 26 31  4  0  0  0  0
 32 36  1  0  0  0  0
 32 37  1  0  0  0  0
 32 38  1  0  0  0  0
 10 33  1  0  0  0  0
 33 35  1  0  0  0  0
 33 34  1  0  0  0  0
M  END
$$$$
